#!/sbin/sh
OUTFD=$2
ZIPFILE=$3

ui_print() {
  echo -n -e "ui_print $1\nui_print\n" >&$OUTFD
}

ui_print "***********************************"
ui_print "       Fake Airplane Mode          "
ui_print "***********************************"

if [ -z "$MODPATH" ]; then
  ui_print "! Please install from Magisk or KernelSU App."
  exit 1
fi

ui_print "- Extracting files..."
unzip -o "$ZIPFILE" module.prop -d "$MODPATH" >&2
unzip -o "$ZIPFILE" service.sh -d "$MODPATH" >&2

ui_print "- Setting permissions..."
chmod 755 "$MODPATH/service.sh"

ui_print "- Installation complete. Please reboot."
exit 0
